AAT BioquestÂ®, Inc. 2025
Actelion Java MolfileCreator 1.0

 53 58  0  0  1  0  0  0  0  0999 V2000
    5.4420    5.2060   -0.0000 O   0  0  0  0  0  0  0  0  0  0  0  0
    5.8488    4.2924   -0.0000 C   0  0  0  0  0  0  0  0  0  0  0  0
    6.8433    4.1879   -0.0000 C   0  0  0  0  0  0  0  0  0  0  0  0
    7.2500    3.2744   -0.0000 C   0  0  0  0  0  0  0  0  0  0  0  0
    6.8433    2.3608   -0.0000 C   0  0  0  0  0  0  0  0  0  0  0  0
    7.5864    1.6917   -0.0000 N   0  0  0  0  0  0  0  0  0  0  0  0
    8.4525    2.1917   -0.0000 C   0  0  0  0  0  0  0  0  0  0  0  0
    9.3818    1.7600   -0.0000 C   0  0  0  0  0  0  0  0  0  0  0  0
    9.6108    0.7612   -0.0000 C   0  0  0  0  0  0  0  0  0  0  0  0
   10.5244    0.3545   -0.0000 C   0  0  0  0  0  0  0  0  0  0  0  0
   11.3904    0.8545   -0.0000 C   0  0  0  0  0  0  0  0  0  0  0  0
   10.4199   -0.6401   -0.0000 C   0  0  0  0  0  0  0  0  0  0  0  0
   11.1630   -1.3092   -0.0000 C   0  0  0  0  0  0  0  0  0  0  0  0
   12.1141   -1.0002   -0.0000 C   0  0  0  0  0  0  0  0  0  0  0  0
    8.9417    0.0181   -0.0000 N   0  0  0  0  0  0  0  0  0  0  0  0
    9.4417   -0.8480   -0.0000 C   0  0  0  0  0  0  0  0  0  0  0  0
    9.0100   -1.7773   -0.0000 C   0  0  0  0  0  0  0  0  0  0  0  0
    8.0112   -2.0063   -0.0000 C   0  0  0  0  0  0  0  0  0  0  0  0
    7.2681   -1.3372   -0.0000 N   0  0  0  0  0  0  0  0  0  0  0  0
    6.4021   -1.8372   -0.0000 C   0  0  0  0  0  0  0  0  0  0  0  0
    6.6100   -2.8154   -0.0000 C   0  0  0  0  0  0  0  0  0  0  0  0
    5.9408   -3.5585   -0.0000 C   0  0  0  0  0  0  0  0  0  0  0  0
    6.2499   -4.5096   -0.0000 C   0  0  0  0  0  0  0  0  0  0  0  0
    5.5807   -5.2527   -0.0000 C   0  0  0  0  0  0  0  0  0  0  0  0
    4.6026   -5.0448   -0.0000 O   0  0  0  0  0  0  0  0  0  0  0  0
    5.8897   -6.2038   -0.0000 O   0  0  0  0  0  0  0  0  0  0  0  0
    7.6045   -2.9199   -0.0000 C   0  0  0  0  0  0  0  0  0  0  0  0
    8.1045   -3.7859   -0.0000 C   0  0  0  0  0  0  0  0  0  0  0  0
    5.4727   -1.4055   -0.0000 C   0  0  0  0  0  0  0  0  0  0  0  0
    5.8445    2.1318   -0.0000 C   0  0  0  0  0  0  0  0  0  0  0  0
    5.4128    1.2024   -0.0000 C   0  0  0  0  0  0  0  0  0  0  0  0
    4.4347    0.9945   -0.0000 C   0  0  0  0  0  0  0  0  0  0  0  0
    3.6915    1.6637   -0.0000 C   0  0  0  0  0  0  0  0  0  0  0  0
    4.3301   -0.0000   -0.0000 C   0  0  0  0  0  0  0  0  0  0  0  0
    3.4641   -0.5000   -0.0000 C   0  0  0  0  0  0  0  0  0  0  0  0
    2.5981   -0.0000   -0.0000 C   0  0  0  0  0  0  0  0  0  0  0  0
    1.7321   -0.5000   -0.0000 C   0  0  0  0  0  0  0  0  0  0  0  0
    0.8660   -0.0000   -0.0000 O   0  0  0  0  0  0  0  0  0  0  0  0
    0.0000   -0.5000   -0.0000 C   0  0  0  0  0  0  0  0  0  0  0  0
    1.7321   -1.5000   -0.0000 O   0  0  0  0  0  0  0  0  0  0  0  0
    5.2437   -0.4067   -0.0000 C   0  0  0  0  0  0  0  0  0  0  0  0
    5.9128    0.3364   -0.0000 N   0  0  0  0  0  0  0  0  0  0  0  0
    6.2500    3.2744   -0.0000 C   0  0  0  0  0  0  0  0  0  0  0  0
    8.2445    3.1698   -0.0000 C   0  0  0  0  0  0  0  0  0  0  0  0
    8.8323    3.9788   -0.0000 C   0  0  0  0  0  0  0  0  0  0  0  0
    8.4256    4.8924   -0.0000 C   0  0  0  0  0  0  0  0  0  0  0  0
    7.4311    4.9969   -0.0000 C   0  0  0  0  0  0  0  0  0  0  0  0
    7.0243    5.9105   -0.0000 C   0  0  0  0  0  0  0  0  0  0  0  0
    6.0298    6.0150   -0.0000 O   0  0  0  0  0  0  0  0  0  0  0  0
    5.6231    6.9285   -0.0000 C   0  0  0  0  0  0  0  0  0  0  0  0
    7.6121    6.7195   -0.0000 O   0  0  0  0  0  0  0  0  0  0  0  0
    5.2610    3.4834   -0.0000 O   0  0  0  0  0  0  0  0  0  0  0  0
    4.2665    3.5879   -0.0000 C   0  0  0  0  0  0  0  0  0  0  0  0
  1  2  2  0  0  0  0
  3  2  1  6  0  0  0
  3  4  1  0  0  0  0
  4  5  1  0  0  0  0
  5  6  1  0  0  0  0
  6  7  2  0  0  0  0
  7  8  1  0  0  0  0
  8  9  2  3  0  0  0
  9 10  1  0  0  0  0
 10 11  1  0  0  0  0
 10 12  2  0  0  0  0
 12 13  1  0  0  0  0
 13 14  2  0  0  0  0
  9 15  1  0  0  0  0
 15 16  1  0  0  0  0
 12 16  1  0  0  0  0
 16 17  2  0  0  0  0
 17 18  1  0  0  0  0
 18 19  2  0  0  0  0
 19 20  1  0  0  0  0
 20 21  1  0  0  0  0
 21 22  1  0  0  0  0
 22 23  1  0  0  0  0
 23 24  1  0  0  0  0
 24 25  1  0  0  0  0
 24 26  2  0  0  0  0
 21 27  2  0  0  0  0
 18 27  1  0  0  0  0
 27 28  1  0  0  0  0
 20 29  2  3  0  0  0
  5 30  2  0  0  0  0
 30 31  1  0  0  0  0
 31 32  2  0  0  0  0
 32 33  1  0  0  0  0
 32 34  1  0  0  0  0
 34 35  1  0  0  0  0
 35 36  1  0  0  0  0
 36 37  1  0  0  0  0
 37 38  1  0  0  0  0
 38 39  1  0  0  0  0
 37 40  2  0  0  0  0
 34 41  2  0  0  0  0
 29 41  1  0  0  0  0
 41 42  1  0  0  0  0
 31 42  1  0  0  0  0
  4 43  1  1  0  0  0
  4 44  1  0  0  0  0
  7 44  1  0  0  0  0
 44 45  2  0  0  0  0
 45 46  1  0  0  0  0
 46 47  2  0  0  0  0
  3 47  1  0  0  0  0
 47 48  1  0  0  0  0
 48 49  1  0  0  0  0
 49 50  1  0  0  0  0
 48 51  2  0  0  0  0
  2 52  1  0  0  0  0
 52 53  1  0  0  0  0
M  END
