@<TRIPOS>MOLECULE
*****
 95 100 0 0 0
SMALL
GASTEIGER

@<TRIPOS>ATOM
      1 O          -6.3869    7.2680    3.5290 O.2     1  UNL1       -0.2501
      2 C          -5.3901    7.5034    4.2080 C.2     1  UNL1        0.3158
      3 C          -5.3251    7.2222    5.7059 C.3     1  UNL1        0.1028
      4 C          -4.7041    5.8270    6.0547 C.3     1  UNL1        0.0541
      5 C          -4.4610    4.7675    4.9046 C.2     1  UNL1        0.0553
      6 N          -3.0821    4.4851    4.9053 N.2     1  UNL1       -0.2508
      7 C          -2.6353    4.7495    6.1257 C.2     1  UNL1        0.0702
      8 C          -2.5919    3.6318    7.1663 C.2     1  UNL1       -0.0124
      9 C          -1.6565    2.7439    7.5191 C.ar    1  UNL1        0.0452
     10 C          -0.2418    2.8274    7.8778 C.ar    1  UNL1       -0.0180
     11 C           0.2884    4.1222    8.4311 C.3     1  UNL1       -0.0371
     12 C           0.3321    1.6104    7.8221 C.ar    1  UNL1        0.0027
     13 C           1.5374    1.3524    8.6013 C.2     1  UNL1       -0.0594
     14 C           2.4816    0.4253    8.4424 C.2     1  UNL1       -0.0981
     15 N          -1.8884    1.3657    7.3580 N.ar    1  UNL1       -0.3543
     16 C          -0.6823    0.6892    7.1798 C.ar    1  UNL1        0.0492
     17 C          -0.4711   -0.3554    6.3222 C.2     1  UNL1       -0.0121
     18 C          -1.4636   -0.9243    5.2660 C.2     1  UNL1        0.0697
     19 N          -2.5182   -0.3204    4.7868 N.2     1  UNL1       -0.2472
     20 C          -2.8925   -0.9060    3.5814 C.2     1  UNL1        0.0700
     21 C          -2.0848   -2.1590    3.5137 C.2     1  UNL1       -0.0165
     22 C          -2.1584   -3.2289    2.4344 C.3     1  UNL1       -0.0153
     23 C          -2.8927   -4.4967    2.8838 C.3     1  UNL1        0.0488
     24 C          -2.9270   -5.6732    1.9260 C.2     1  UNL1        0.3050
     25 O          -2.6415   -5.4338    0.6339 O.3     1  UNL1       -0.4806
     26 O          -3.2363   -6.8008    2.2966 O.2     1  UNL1       -0.2510
     27 C          -1.1802   -2.1831    4.5279 C.2     1  UNL1       -0.0198
     28 C          -0.1951   -3.2204    4.9325 C.3     1  UNL1       -0.0374
     29 C          -3.6230   -0.2849    2.5854 C.2     1  UNL1       -0.0124
     30 C          -5.3569    4.0461    4.1686 C.2     1  UNL1       -0.0159
     31 C          -4.9261    3.1529    3.0991 C.ar    1  UNL1        0.0446
     32 C          -4.1822    3.4497    1.9707 C.ar    1  UNL1       -0.0220
     33 C          -3.9504    4.8206    1.4081 C.3     1  UNL1       -0.0374
     34 C          -3.3004    2.3153    1.9328 C.ar    1  UNL1       -0.0186
     35 C          -1.8126    2.5614    1.8473 C.3     1  UNL1       -0.0154
     36 C          -1.1268    1.7719    2.9373 C.3     1  UNL1        0.0490
     37 C          -1.3465    2.3107    4.3159 C.2     1  UNL1        0.3071
     38 O          -0.2323    2.8505    4.8863 O.3     1  UNL1       -0.4679
     39 C           0.5591    3.7110    4.0869 C.3     1  UNL1        0.0817
     40 O          -2.3802    2.1044    4.9321 O.2     1  UNL1       -0.2509
     41 C          -3.9667    1.1707    2.4587 C.ar    1  UNL1        0.0452
     42 N          -5.0736    1.7574    3.0952 N.ar    1  UNL1       -0.3545
     43 C          -5.4142    5.2218    7.2990 C.3     1  UNL1       -0.0489
     44 C          -3.2674    6.0123    6.5416 C.2     1  UNL1       -0.0091
     45 C          -2.6819    7.1544    6.9178 C.2     1  UNL1       -0.0551
     46 C          -3.5106    8.3271    7.0861 C.2     1  UNL1       -0.0506
     47 C          -4.7281    8.4048    6.5122 C.2     1  UNL1        0.0515
     48 C          -5.6585    9.5297    6.7999 C.2     1  UNL1        0.3357
     49 O          -5.1990   10.7529    7.1440 O.3     1  UNL1       -0.4647
     50 C          -4.0221   11.4155    6.6512 C.3     1  UNL1        0.0820
     51 O          -6.8642    9.3163    6.7861 O.2     1  UNL1       -0.2453
     52 O          -4.2374    7.9511    3.6535 O.3     1  UNL1       -0.4675
     53 C          -4.0617    9.3663    3.6799 C.3     1  UNL1        0.0817
     54 H          -6.3863    7.1463    5.9875 H       1  UNL1        0.0477
     55 H          -3.5819    3.1376    7.0728 H       1  UNL1        0.0659
     56 H          -0.1903    4.9976    7.9875 H       1  UNL1        0.0278
     57 H           1.3529    4.2367    8.2282 H       1  UNL1        0.0278
     58 H           0.1461    4.1877    9.5103 H       1  UNL1        0.0278
     59 H           1.6596    2.0116    9.4715 H       1  UNL1        0.0618
     60 H           2.4822   -0.2846    7.6230 H       1  UNL1        0.0535
     61 H           3.2992    0.3728    9.1572 H       1  UNL1        0.0535
     62 H          -2.5233    1.2040    6.5595 H       1  UNL1        0.1659
     63 H           0.5464   -0.7034    6.1878 H       1  UNL1        0.0660
     64 H          -2.6173   -2.8266    1.5264 H       1  UNL1        0.0319
     65 H          -1.1393   -3.5138    2.1285 H       1  UNL1        0.0319
     66 H          -3.9285   -4.2532    3.1406 H       1  UNL1        0.0381
     67 H          -2.4051   -4.8852    3.7878 H       1  UNL1        0.0381
     68 H          -2.4444   -4.5166    0.3791 H       1  UNL1        0.2951
     69 H          -0.1933   -4.0851    4.2566 H       1  UNL1        0.0278
     70 H          -0.4405   -3.6052    5.9281 H       1  UNL1        0.0278
     71 H           0.8297   -2.8366    4.9541 H       1  UNL1        0.0278
     72 H          -3.7648   -0.8310    1.6515 H       1  UNL1        0.0659
     73 H          -6.4218    4.1954    4.2842 H       1  UNL1        0.0656
     74 H          -4.8831    5.2490    1.0217 H       1  UNL1        0.0278
     75 H          -3.2360    4.8039    0.5786 H       1  UNL1        0.0278
     76 H          -3.5586    5.4978    2.1720 H       1  UNL1        0.0278
     77 H          -1.4066    2.3153    0.8634 H       1  UNL1        0.0319
     78 H          -1.6175    3.6286    2.0271 H       1  UNL1        0.0319
     79 H          -0.1371    1.3942    2.7478 H       1  UNL1        0.0381
     80 H          -1.6403    0.8526    2.9907 H       1  UNL1        0.0381
     81 H           1.4320    3.9961    4.6768 H       1  UNL1        0.0661
     82 H          -0.0240    4.6022    3.8499 H       1  UNL1        0.0661
     83 H           0.9086    3.2108    3.1817 H       1  UNL1        0.0661
     84 H          -5.7496    1.2397    3.6328 H       1  UNL1        0.1659
     85 H          -5.9442    4.2962    7.0640 H       1  UNL1        0.0242
     86 H          -6.1223    5.9225    7.7504 H       1  UNL1        0.0242
     87 H          -4.7146    4.9881    8.1157 H       1  UNL1        0.0242
     88 H          -1.6120    7.2258    7.0865 H       1  UNL1        0.0621
     89 H          -3.1102    9.1095    7.7238 H       1  UNL1        0.0623
     90 H          -4.3266   12.3885    6.2502 H       1  UNL1        0.0661
     91 H          -3.5094   10.8674    5.8669 H       1  UNL1        0.0661
     92 H          -3.3442   11.5915    7.4892 H       1  UNL1        0.0661
     93 H          -3.8998    9.7408    2.6673 H       1  UNL1        0.0661
     94 H          -3.1576    9.5672    4.2590 H       1  UNL1        0.0661
     95 H          -4.9163    9.8975    4.1133 H       1  UNL1        0.0661
@<TRIPOS>BOND
     1     1     2    2
     2     3     4    1
     3     4     5    1
     4     5     6    1
     5     6     7    2
     6     7     8    1
     7     8     9    2
     8     9    10   ar
     9    10    12   ar
    10    13    14    2
    11     9    15   ar
    12    15    16   ar
    13    12    16   ar
    14    16    17    2
    15    17    18    1
    16    18    19    2
    17    19    20    1
    18    20    21    1
    19    22    23    1
    20    23    24    1
    21    24    25    1
    22    24    26    2
    23    21    27    2
    24    18    27    1
    25    20    29    2
    26     5    30    2
    27    30    31    1
    28    31    32   ar
    29    32    34   ar
    30    35    36    1
    31    36    37    1
    32    37    38    1
    33    38    39    1
    34    37    40    2
    35    34    41   ar
    36    29    41    1
    37    41    42   ar
    38    31    42   ar
    39     4    44    1
    40     7    44    1
    41    44    45    2
    42    45    46    1
    43    46    47    2
    44     3    47    1
    45    48    49    1
    46    49    50    1
    47    48    51    2
    48     2    52    1
    49    52    53    1
    50     4    43    1
    51    10    11    1
    52    12    13    1
    53    21    22    1
    54    27    28    1
    55    32    33    1
    56    34    35    1
    57    47    48    1
    58     3     2    1
    59     3    54    1
    60     8    55    1
    61    11    56    1
    62    11    57    1
    63    11    58    1
    64    13    59    1
    65    14    60    1
    66    14    61    1
    67    15    62    1
    68    17    63    1
    69    22    64    1
    70    22    65    1
    71    23    66    1
    72    23    67    1
    73    25    68    1
    74    28    69    1
    75    28    70    1
    76    28    71    1
    77    29    72    1
    78    30    73    1
    79    33    74    1
    80    33    75    1
    81    33    76    1
    82    35    77    1
    83    35    78    1
    84    36    79    1
    85    36    80    1
    86    39    81    1
    87    39    82    1
    88    39    83    1
    89    42    84    1
    90    43    85    1
    91    43    86    1
    92    43    87    1
    93    45    88    1
    94    46    89    1
    95    50    90    1
    96    50    91    1
    97    50    92    1
    98    53    93    1
    99    53    94    1
   100    53    95    1
