@<TRIPOS>MOLECULE
*****
 29 30 0 0 0
SMALL
GASTEIGER

@<TRIPOS>ATOM
      1 O           3.4066    0.6366   -1.5543 O.3     1  UNL1       -0.4770
      2 C           4.3097    0.8950   -0.5817 C.2     1  UNL1        0.3402
      3 O           5.5087    0.7246   -0.6975 O.2     1  UNL1       -0.2450
      4 C           3.6791    1.5095    0.5941 C.ar    1  UNL1        0.0987
      5 C           3.1947    2.8172    0.4756 C.ar    1  UNL1       -0.0430
      6 C           2.6590    3.4434    1.5935 C.ar    1  UNL1       -0.0427
      7 C           2.6380    2.7386    2.7839 C.ar    1  UNL1        0.0297
      8 N           3.0988    1.4733    2.9198 N.ar    1  UNL1       -0.2394
      9 C           3.6165    0.8595    1.8279 C.ar    1  UNL1        0.1369
     10 N           4.0609   -0.4547    2.0456 N.pl3   1  UNL1       -0.2988
     11 C           3.6466   -1.5970    1.3227 C.ar    1  UNL1        0.0329
     12 C           4.5116   -2.6929    1.2483 C.ar    1  UNL1       -0.0405
     13 C           4.1238   -3.8673    0.6018 C.ar    1  UNL1       -0.0595
     14 C           2.8524   -3.9665    0.0391 C.ar    1  UNL1       -0.0500
     15 C           1.9551   -2.8938    0.1279 C.ar    1  UNL1        0.0566
     16 C           2.3547   -1.7239    0.7977 C.ar    1  UNL1       -0.0289
     17 C           0.5672   -2.9927   -0.4499 C.3     1  UNL1        0.4175
     18 F           0.4570   -3.9092   -1.4505 F       1  UNL1       -0.1659
     19 F          -0.3607   -3.3397    0.4834 F       1  UNL1       -0.1659
     20 F           0.1379   -1.8106   -0.9796 F       1  UNL1       -0.1659
     21 H           2.4752    0.7672   -1.2937 H       1  UNL1        0.2954
     22 H           3.2659    3.3510   -0.4691 H       1  UNL1        0.0627
     23 H           2.2868    4.4613    1.5448 H       1  UNL1        0.0633
     24 H           2.2421    3.1856    3.6924 H       1  UNL1        0.0830
     25 H           3.9106   -0.6195    3.0418 H       1  UNL1        0.1536
     26 H           5.5100   -2.6232    1.6756 H       1  UNL1        0.0636
     27 H           4.8181   -4.7014    0.5340 H       1  UNL1        0.0618
     28 H           2.5637   -4.8865   -0.4673 H       1  UNL1        0.0623
     29 H           1.6393   -0.9117    0.9116 H       1  UNL1        0.0642
@<TRIPOS>BOND
     1     1     2    1
     2     2     3    2
     3     2     4    1
     4     4     5   ar
     5     5     6   ar
     6     6     7   ar
     7     7     8   ar
     8     8     9   ar
     9     4     9   ar
    10     9    10    1
    11    10    11    1
    12    11    12   ar
    13    12    13   ar
    14    13    14   ar
    15    14    15   ar
    16    15    16   ar
    17    11    16   ar
    18    15    17    1
    19    17    18    1
    20    17    19    1
    21    17    20    1
    22     1    21    1
    23     5    22    1
    24     6    23    1
    25     7    24    1
    26    10    25    1
    27    12    26    1
    28    13    27    1
    29    14    28    1
    30    16    29    1
